
This summary file was generated by TurbSim (v1.40, 12-Sep-2008) on 13-Dec-2020 at 20:27:38.


Runtime Options:

   4895928  Random seed #1
    RANLUX  Random Number Generator Type
         F  Output binary HH turbulence parameters?
         F  Output formatted turbulence parameters?
         F  Output AeroDyn HH files?
         F  Output AeroDyn FF files?
         T  Output BLADED FF files?
         F  Output tower data?
         T  Output formatted FF files?
         F  Output coherent turbulence time step file?
         T  Clockwise rotation when looking downwind?
         F  Scale IEC turbulence models to specified hub-height standard deviation?


Turbine/Model Specifications:

        11  Vertical grid-point matrix dimension
        11  Horizontal grid-point matrix dimension
     0.050  Time step [seconds]
    30.000  Analysis time [seconds]
    20.000  Usable output time [seconds]
    90.000  Hub height [m]
   175.000  Grid height [m]
   200.000  Grid width [m]
     0.000  Vertical flow angle [degrees]
     0.000  Horizontal flow angle [degrees]


Meteorological Boundary Conditions:

    IECKAI  IEC Kaimal spectral model
         1  IEC standard: IEC 61400-1 Ed. 3: 2005
         B  IEC turbulence characteristic
       NTM  IEC Normal Turbulence Model
       N/A  IEC Extreme Turbulence Model (ETM) "c" parameter [m/s]
       PL   Wind profile type
    90.000  Reference height [m]
    11.400  Reference wind speed [m/s]
       N/A  Jet height [m]
     0.200  Power law exponent
     0.030  Surface roughness length [m]


You have requested that the following file(s) be generated:

   G:\StudyJeyla\Research\Github\F2A\Examples\F2A\FAST_Config\WindData\NREL5MW_11.4.wnd (AeroDyn/BLADED full-field wnd file)
   G:\StudyJeyla\Research\Github\F2A\Examples\F2A\FAST_Config\WindData\NREL5MW_11.4.u (formatted full-field U-component file)
   G:\StudyJeyla\Research\Github\F2A\Examples\F2A\FAST_Config\WindData\NREL5MW_11.4.v (formatted full-field V-component file)
   G:\StudyJeyla\Research\Github\F2A\Examples\F2A\FAST_Config\WindData\NREL5MW_11.4.w (formatted full-field W-component file)


Turbulence Simulation Scaling Parameter Summary:

   Turbulence model used                            =  IEC Kaimal
   Turbulence characteristic                        =  B
   IEC turbulence type                              =  Normal Turbulence Model
   IEC standard                                     =  IEC 61400-1 Ed. 3: 2005
   Mean wind speed at hub height                    =   11.400 m/s
   Expected value of turbulence intensity at 15 m/s =   14.000%
   Characteristic value of standard deviation       =    1.981 m/s
   Turbulence scale                                 =   42.000 m
   u-component integral scale                       =  340.200 m
   Coherency scale                                  =  340.200 m
   Characteristic value of hub turbulence intensity =   17.377%
   Gradient Richardson number                       =    0.000

   Wind profile type                                =  Power law
   Power law exponent                               =    0.200
   Mean shear across rotor disk                     =    0.043 (m/s)/m
   Assumed rotor diameter                           =  175.000 m
   Surface roughness length                         =    0.030 m

   Number of time steps in the FFT                  =      756
   Number of time steps output                      =      751


Mean Flow Angles:

   Vertical   =   0.0 degrees
   Horizontal =   0.0 degrees

Mean Wind Speed Profile:

   Height    Wind Speed   Horizontal Angle  U-comp (X)   V-comp (Y)   W-comp (Z)
     (m)        (m/s)         (degrees)       (m/s)        (m/s)        (m/s)   
   ------    ----------   ----------------  ----------   ----------   ----------
    177.5       13.06            0.00         13.06         0.00         0.00
    160.0       12.79            0.00         12.79         0.00         0.00
    142.5       12.50            0.00         12.50         0.00         0.00
    125.0       12.17            0.00         12.17         0.00         0.00
    107.5       11.81            0.00         11.81         0.00         0.00
     90.0       11.40            0.00         11.40         0.00         0.00
     72.5       10.92            0.00         10.92         0.00         0.00
     55.0       10.33            0.00         10.33         0.00         0.00
     37.5        9.57            0.00          9.57         0.00         0.00
     20.0        8.44            0.00          8.44         0.00         0.00
      2.5        5.57            0.00          5.57         0.00         0.00


Harvested Random Seeds after Generation of the Random Numbers:

      1274897 K1
            0 K2


Hub-Height Simulated Turbulence Statistical Summary:

   Type of Wind        Min (m/s)   Mean (m/s)    Max (m/s)  Sigma (m/s)       TI (%)
   ----------------    ---------   ----------    ---------  -----------       ------
   Longitudinal (u)         8.21        11.40        13.79        1.033        9.065
   Lateral (v)             -2.52         0.00         4.20        1.271       11.153
   Vertical (w)            -2.59         0.00         2.79        0.913        8.005
   U component              8.21        11.40        13.79        1.033        9.065
   V component             -2.52         0.00         4.20        1.271       11.153
   W component             -2.59         0.00         2.79        0.913        8.005
   Horizontal (U&V)         8.25        11.47        13.79        1.046        9.124
   Total                    8.62        11.51        13.79        1.031        8.964

                       Min Reynolds     Mean Reynolds    Max Reynolds    Correlation
   Product             Stress (m/s)^2   Stress (m/s)^2   Stress (m/s)^2  Coefficient
   ----------------    --------------   --------------   --------------  -----------
   u'w'                     -7.970            -0.391             1.509        -0.415
   u'v'                     -3.692             0.202             3.921         0.153
   v'w'                     -6.038            -0.243             3.356        -0.210

   Friction Velocity (Ustar)  =      0.626 m/s
   Maximum Instantaneous TKE  =      9.44 (m/s)^2
   Maximum Instantaneous CTKE =      4.46 (m/s)^2


Grid Point Variance Summary:

   Y-coord -100.00  -80.00  -60.00  -40.00  -20.00    0.00   20.00   40.00   60.00   80.00  100.00

   Height   Standard deviation at grid points for the u component:
   177.50    1.474   1.177   1.053   1.112   0.934   1.120   1.073   1.086   0.949   1.033   1.234
   160.00    1.343   1.271   1.161   1.534   1.688   0.907   1.233   1.019   1.064   1.191   1.198
   142.50    1.226   1.189   0.892   1.359   1.504   1.068   1.165   1.220   0.990   1.002   1.206
   125.00    1.045   0.886   0.954   1.232   1.446   1.029   1.199   1.054   1.155   1.232   1.156
   107.50    1.245   1.125   1.330   1.066   1.217   1.325   1.051   1.008   0.984   1.269   1.143
    90.00    1.325   0.827   1.292   0.930   1.181   1.033   1.235   0.985   1.423   1.546   1.057
    72.50    1.517   1.671   1.351   1.122   1.248   1.051   1.116   1.302   1.423   1.266   1.168
    55.00    1.132   1.291   1.441   1.133   1.633   1.428   1.157   1.209   1.294   1.201   0.959
    37.50    0.868   0.834   1.172   1.187   1.332   1.638   0.957   1.273   1.400   1.321   1.351
    20.00    1.344   1.446   1.230   1.189   1.162   1.161   1.309   1.057   1.059   1.296   1.317
     2.50    1.267   1.273   1.091   1.213   1.375   1.603   1.383   1.329   1.040   1.167   1.112

   Height   Standard deviation at grid points for the v component:
   177.50    1.271   1.271   1.271   1.271   1.271   1.271   1.271   1.271   1.271   1.271   1.271
   160.00    1.271   1.271   1.271   1.271   1.271   1.271   1.271   1.271   1.271   1.271   1.271
   142.50    1.271   1.271   1.271   1.271   1.271   1.271   1.271   1.271   1.271   1.271   1.271
   125.00    1.271   1.271   1.271   1.271   1.271   1.271   1.271   1.271   1.271   1.271   1.271
   107.50    1.271   1.271   1.271   1.271   1.271   1.271   1.271   1.271   1.271   1.271   1.271
    90.00    1.271   1.271   1.271   1.271   1.271   1.271   1.271   1.271   1.271   1.271   1.271
    72.50    1.271   1.271   1.271   1.271   1.271   1.271   1.271   1.271   1.271   1.271   1.271
    55.00    1.271   1.271   1.271   1.271   1.271   1.271   1.271   1.271   1.271   1.271   1.271
    37.50    1.271   1.271   1.271   1.271   1.271   1.271   1.271   1.271   1.271   1.271   1.271
    20.00    1.271   1.271   1.271   1.271   1.271   1.271   1.271   1.271   1.271   1.271   1.271
     2.50    1.271   1.271   1.271   1.271   1.271   1.271   1.271   1.271   1.271   1.271   1.271

   Height   Standard deviation at grid points for the w component:
   177.50    0.913   0.913   0.913   0.913   0.913   0.913   0.913   0.913   0.913   0.913   0.913
   160.00    0.913   0.913   0.913   0.913   0.913   0.913   0.913   0.913   0.913   0.913   0.913
   142.50    0.913   0.913   0.913   0.913   0.913   0.913   0.913   0.913   0.913   0.913   0.913
   125.00    0.913   0.913   0.913   0.913   0.913   0.913   0.913   0.913   0.913   0.913   0.913
   107.50    0.913   0.913   0.913   0.913   0.913   0.913   0.913   0.913   0.913   0.913   0.913
    90.00    0.913   0.913   0.913   0.913   0.913   0.913   0.913   0.913   0.913   0.913   0.913
    72.50    0.913   0.913   0.913   0.913   0.913   0.913   0.913   0.913   0.913   0.913   0.913
    55.00    0.913   0.913   0.913   0.913   0.913   0.913   0.913   0.913   0.913   0.913   0.913
    37.50    0.913   0.913   0.913   0.913   0.913   0.913   0.913   0.913   0.913   0.913   0.913
    20.00    0.913   0.913   0.913   0.913   0.913   0.913   0.913   0.913   0.913   0.913   0.913
     2.50    0.913   0.913   0.913   0.913   0.913   0.913   0.913   0.913   0.913   0.913   0.913


U-component (X) statistics from the hub grid point:

   Mean =  11.4000 m/s
   TI   =   9.0651 %


Normalizing Parameters for Binary Data (approximate statistics):

   UBar  =  11.4000 m/s
   TI(u) =   9.0651 %
   TI(v) =  11.1533 %
   TI(w) =   8.0052 %

   Height Offset =   0.0000 m
   Grid Base     =   2.5000 m

Nyquist frequency of turbulent wind field =        10.000 Hz


Processing complete.  0.39062 CPU seconds used.
