
This summary file was generated by TurbSim (v1.40, 12-Sep-2008) on 05-Apr-2020 at 11:22:16.


Runtime Options:

   4895928  Random seed #1
    RANLUX  Random Number Generator Type
         F  Output binary HH turbulence parameters?
         F  Output formatted turbulence parameters?
         F  Output AeroDyn HH files?
         F  Output AeroDyn FF files?
         T  Output BLADED FF files?
         F  Output tower data?
         T  Output formatted FF files?
         F  Output coherent turbulence time step file?
         T  Clockwise rotation when looking downwind?
         F  Scale IEC turbulence models to specified hub-height standard deviation?


Turbine/Model Specifications:

        11  Vertical grid-point matrix dimension
        11  Horizontal grid-point matrix dimension
     0.050  Time step [seconds]
  4430.000  Analysis time [seconds]
  4200.000  Usable output time [seconds]
    90.000  Hub height [m]
   175.000  Grid height [m]
   200.000  Grid width [m]
     0.000  Vertical flow angle [degrees]
     0.000  Horizontal flow angle [degrees]


Meteorological Boundary Conditions:

    IECKAI  IEC Kaimal spectral model
         1  IEC standard: IEC 61400-1 Ed. 3: 2005
         B  IEC turbulence characteristic
       NTM  IEC Normal Turbulence Model
       N/A  IEC Extreme Turbulence Model (ETM) "c" parameter [m/s]
       PL   Wind profile type
    90.000  Reference height [m]
    11.400  Reference wind speed [m/s]
       N/A  Jet height [m]
     0.200  Power law exponent
     0.030  Surface roughness length [m]


You have requested that the following file(s) be generated:

   nrel5mw_11.4.wnd (AeroDyn/BLADED full-field wnd file)
   nrel5mw_11.4.u (formatted full-field U-component file)
   nrel5mw_11.4.v (formatted full-field V-component file)
   nrel5mw_11.4.w (formatted full-field W-component file)


Turbulence Simulation Scaling Parameter Summary:

   Turbulence model used                            =  IEC Kaimal
   Turbulence characteristic                        =  B
   IEC turbulence type                              =  Normal Turbulence Model
   IEC standard                                     =  IEC 61400-1 Ed. 3: 2005
   Mean wind speed at hub height                    =   11.400 m/s
   Expected value of turbulence intensity at 15 m/s =   14.000%
   Characteristic value of standard deviation       =    1.981 m/s
   Turbulence scale                                 =   42.000 m
   u-component integral scale                       =  340.200 m
   Coherency scale                                  =  340.200 m
   Characteristic value of hub turbulence intensity =   17.377%
   Gradient Richardson number                       =    0.000

   Wind profile type                                =  Power law
   Power law exponent                               =    0.200
   Mean shear across rotor disk                     =    0.043 (m/s)/m
   Assumed rotor diameter                           =  175.000 m
   Surface roughness length                         =    0.030 m

   Number of time steps in the FFT                  =    88704
   Number of time steps output                      =    84351


Mean Flow Angles:

   Vertical   =   0.0 degrees
   Horizontal =   0.0 degrees

Mean Wind Speed Profile:

   Height    Wind Speed   Horizontal Angle  U-comp (X)   V-comp (Y)   W-comp (Z)
     (m)        (m/s)         (degrees)       (m/s)        (m/s)        (m/s)   
   ------    ----------   ----------------  ----------   ----------   ----------
    177.5       13.06            0.00         13.06         0.00         0.00
    160.0       12.79            0.00         12.79         0.00         0.00
    142.5       12.50            0.00         12.50         0.00         0.00
    125.0       12.17            0.00         12.17         0.00         0.00
    107.5       11.81            0.00         11.81         0.00         0.00
     90.0       11.40            0.00         11.40         0.00         0.00
     72.5       10.92            0.00         10.92         0.00         0.00
     55.0       10.33            0.00         10.33         0.00         0.00
     37.5        9.57            0.00          9.57         0.00         0.00
     20.0        8.44            0.00          8.44         0.00         0.00
      2.5        5.57            0.00          5.57         0.00         0.00


Harvested Random Seeds after Generation of the Random Numbers:

    149593752 K1
            0 K2


Hub-Height Simulated Turbulence Statistical Summary:

   Type of Wind        Min (m/s)   Mean (m/s)    Max (m/s)  Sigma (m/s)       TI (%)
   ----------------    ---------   ----------    ---------  -----------       ------
   Longitudinal (u)         5.00        11.40        18.43        1.936       16.980
   Lateral (v)             -6.54         0.00         6.60        1.570       13.772
   Vertical (w)            -3.91         0.00         4.27        0.972        8.526
   U component              5.00        11.40        18.43        1.936       16.980
   V component             -6.54         0.00         6.60        1.570       13.772
   W component             -3.91         0.00         4.27        0.972        8.526
   Horizontal (U&V)         5.18        11.51        18.59        1.924       16.717
   Total                    5.19        11.55        18.63        1.917       16.596

                       Min Reynolds     Mean Reynolds    Max Reynolds    Correlation
   Product             Stress (m/s)^2   Stress (m/s)^2   Stress (m/s)^2  Coefficient
   ----------------    --------------   --------------   --------------  -----------
   u'w'                    -19.454             0.006            15.966         0.003
   u'v'                    -21.999             0.188            24.852         0.062
   v'w'                    -15.388            -0.062            14.135        -0.041

   Friction Velocity (Ustar)  =      0.075 m/s
   Maximum Instantaneous TKE  =     29.09 (m/s)^2
   Maximum Instantaneous CTKE =     15.97 (m/s)^2


Grid Point Variance Summary:

   Y-coord -100.00  -80.00  -60.00  -40.00  -20.00    0.00   20.00   40.00   60.00   80.00  100.00

   Height   Standard deviation at grid points for the u component:
   177.50    1.765   1.772   1.821   1.891   1.830   1.912   1.881   1.934   1.985   1.910   1.893
   160.00    1.704   1.805   1.843   1.933   1.832   1.883   1.914   1.959   1.915   1.914   1.927
   142.50    1.745   1.723   1.841   1.934   1.908   1.860   1.890   1.909   1.892   1.908   1.930
   125.00    1.748   1.727   1.787   1.816   1.912   1.888   1.890   1.920   1.879   1.873   1.861
   107.50    1.712   1.772   1.756   1.897   1.869   1.867   1.925   1.891   1.880   1.864   1.835
    90.00    1.831   1.747   1.829   1.875   1.916   1.936   1.981   1.986   1.922   1.907   1.852
    72.50    1.891   1.869   1.852   1.862   1.939   1.956   1.968   1.985   1.969   1.923   1.894
    55.00    1.918   1.891   1.868   1.864   1.901   1.896   1.907   1.945   1.957   1.956   1.973
    37.50    1.867   1.883   1.942   1.913   1.901   1.871   1.872   1.871   1.902   1.872   1.982
    20.00    1.944   1.925   1.917   1.958   1.999   1.871   1.883   1.810   1.807   1.849   1.901
     2.50    1.961   2.050   1.884   1.898   1.974   1.923   1.828   1.797   1.839   1.868   1.841

   Height   Standard deviation at grid points for the v component:
   177.50    1.570   1.570   1.570   1.570   1.570   1.570   1.570   1.570   1.570   1.570   1.570
   160.00    1.570   1.570   1.570   1.570   1.570   1.570   1.570   1.570   1.570   1.570   1.570
   142.50    1.570   1.570   1.570   1.570   1.570   1.570   1.570   1.570   1.570   1.570   1.570
   125.00    1.570   1.570   1.570   1.570   1.570   1.570   1.570   1.570   1.570   1.570   1.570
   107.50    1.570   1.570   1.570   1.570   1.570   1.570   1.570   1.570   1.570   1.570   1.570
    90.00    1.570   1.570   1.570   1.570   1.570   1.570   1.570   1.570   1.570   1.570   1.570
    72.50    1.570   1.570   1.570   1.570   1.570   1.570   1.570   1.570   1.570   1.570   1.570
    55.00    1.570   1.570   1.570   1.570   1.570   1.570   1.570   1.570   1.570   1.570   1.570
    37.50    1.570   1.570   1.570   1.570   1.570   1.570   1.570   1.570   1.570   1.570   1.570
    20.00    1.570   1.570   1.570   1.570   1.570   1.570   1.570   1.570   1.570   1.570   1.570
     2.50    1.570   1.570   1.570   1.570   1.570   1.570   1.570   1.570   1.570   1.570   1.570

   Height   Standard deviation at grid points for the w component:
   177.50    0.972   0.972   0.972   0.972   0.972   0.972   0.972   0.972   0.972   0.972   0.972
   160.00    0.972   0.972   0.972   0.972   0.972   0.972   0.972   0.972   0.972   0.972   0.972
   142.50    0.972   0.972   0.972   0.972   0.972   0.972   0.972   0.972   0.972   0.972   0.972
   125.00    0.972   0.972   0.972   0.972   0.972   0.972   0.972   0.972   0.972   0.972   0.972
   107.50    0.972   0.972   0.972   0.972   0.972   0.972   0.972   0.972   0.972   0.972   0.972
    90.00    0.972   0.972   0.972   0.972   0.972   0.972   0.972   0.972   0.972   0.972   0.972
    72.50    0.972   0.972   0.972   0.972   0.972   0.972   0.972   0.972   0.972   0.972   0.972
    55.00    0.972   0.972   0.972   0.972   0.972   0.972   0.972   0.972   0.972   0.972   0.972
    37.50    0.972   0.972   0.972   0.972   0.972   0.972   0.972   0.972   0.972   0.972   0.972
    20.00    0.972   0.972   0.972   0.972   0.972   0.972   0.972   0.972   0.972   0.972   0.972
     2.50    0.972   0.972   0.972   0.972   0.972   0.972   0.972   0.972   0.972   0.972   0.972


U-component (X) statistics from the hub grid point:

   Mean =  11.4000 m/s
   TI   =  16.9796 %


Normalizing Parameters for Binary Data (approximate statistics):

   UBar  =  11.4000 m/s
   TI(u) =  16.9796 %
   TI(v) =  13.7721 %
   TI(w) =   8.5263 %

   Height Offset =   0.0000 m
   Grid Base     =   2.5000 m

Nyquist frequency of turbulent wind field =        10.000 Hz


Processing complete.  52.422 CPU seconds used.
